@<TRIPOS>MOLECULE
XP_500_bestposes_pocket.pdb
 268 262 0 0 0
SMALL
GASTEIGER

@<TRIPOS>ATOM
      1  N         88.6650  101.6920   82.0160 N.3   162  ASP162     -0.2435
      2  CA        89.8540  102.5300   82.1230 C.3   162  ASP162      0.1082
      3  C         89.6180  103.6970   83.0710 C.2   162  ASP162      0.2325
      4  O         90.4420  103.9640   83.9570 O.2   162  ASP162     -0.2740
      5  CB        90.2610  103.0380   80.7400 C.3   162  ASP162      0.0742
      6  CG        91.4860  103.9300   80.7840 C.2   162  ASP162      0.3580
      7  OD1       92.3730  103.6850   81.6280 O.co2 162  ASP162     -0.2463
      8  OD2       91.5620  104.8780   79.9740 O.co2 162  ASP162     -0.2463
      9  H         88.3340  101.6330   81.2250 H     162  ASP162      0.1414
     10  HA        90.5850  101.9990   82.4760 H     162  ASP162      0.0575
     11  HB2       90.4630  102.2790   80.1710 H     162  ASP162      0.0400
     12  HB3       89.5300  103.5510   80.3630 H     162  ASP162      0.0400
     13  N         88.4940  104.3990   82.9080 N.am  163  VAL163     -0.3024
     14  CA        88.2140  105.5480   83.7640 C.3   163  VAL163      0.1017
     15  C         88.1300  105.1080   85.2200 C.2   163  VAL163      0.2342
     16  O         88.7250  105.7280   86.1120 O.2   163  VAL163     -0.2738
     17  CB        86.9220  106.2510   83.3120 C.3   163  VAL163     -0.0197
     18  CG1       86.4850  107.2800   84.3440 C.3   163  VAL163     -0.0605
     19  CG2       87.1170  106.8980   81.9480 C.3   163  VAL163     -0.0605
     20  H         87.8890  104.2330   82.3200 H     163  VAL163      0.1495
     21  HA        88.9430  106.1830   83.6870 H     163  VAL163      0.0597
     22  HB        86.2160  105.5900   83.2310 H     163  VAL163      0.0318
     23 HG11       85.7990  107.8450   83.9550 H     163  VAL163      0.0233
     24 HG12       86.1300  106.8190   85.1190 H     163  VAL163      0.0233
     25 HG13       87.2510  107.8170   84.5980 H     163  VAL163      0.0233
     26 HG21       86.4630  106.5340   81.3310 H     163  VAL163      0.0233
     27 HG22       88.0130  106.7050   81.6320 H     163  VAL163      0.0233
     28 HG23       86.9940  107.8560   82.0310 H     163  VAL163      0.0233
     29  N         87.3960  104.0240   85.4800 N.am  164  MET164     -0.3037
     30  CA        87.2060  103.5610   86.8490 C.3   164  MET164      0.0898
     31  C         88.5300  103.1580   87.4830 C.2   164  MET164      0.2200
     32  O         88.8190  103.5320   88.6240 O.2   164  MET164     -0.2869
     33  CB        86.2190  102.3930   86.8640 C.3   164  MET164     -0.0181
     34  CG        85.7520  101.9820   88.2490 C.3   164  MET164     -0.0045
     35  SD        86.8580  100.7950   89.0330 S.3   164  MET164     -0.1641
     36  CE        85.9470   99.2730   88.7810 C.3   164  MET164     -0.0181
     37  H         87.0030  103.5450   84.8850 H     164  MET164      0.1495
     38  HA        86.8180  104.2820   87.3700 H     164  MET164      0.0582
     39  HB2       85.4350  102.6420   86.3510 H     164  MET164      0.0295
     40  HB3       86.6440  101.6220   86.4560 H     164  MET164      0.0295
     41  HG2       85.7090  102.7690   88.8140 H     164  MET164      0.0377
     42  HG3       84.8740  101.5750   88.1790 H     164  MET164      0.0377
     43  HE1       85.0920   99.3390   89.2330 H     164  MET164      0.0340
     44  HE2       86.4580   98.5340   89.1460 H     164  MET164      0.0340
     45  HE3       85.8090   99.1420   87.8290 H     164  MET164      0.0340
     46  N         91.6730  104.0440   86.6460 N.3   166  CYS166     -0.2432
     47  CA        92.5640  105.1790   86.8650 C.3   166  CYS166      0.1067
     48  C         92.0860  106.0420   88.0280 C.2   166  CYS166      0.2328
     49  O         92.8960  106.4780   88.8580 O.2   166  CYS166     -0.2740
     50  CB        92.6860  106.0020   85.5840 C.3   166  CYS166      0.0159
     51  SG        93.4590  105.1010   84.2190 S.3   166  CYS166     -0.1762
     52  H         91.2520  104.0500   85.8960 H     166  CYS166      0.1414
     53  HA        93.4470  104.8450   87.0870 H     166  CYS166      0.0578
     54  HB2       91.7980  106.2680   85.2980 H     166  CYS166      0.0394
     55  HB3       93.2240  106.7880   85.7650 H     166  CYS166      0.0394
     56  HG        92.6400  104.4060   83.6840 H     166  CYS166      0.1017
     57  N         90.7760  106.2950   88.1150 N.am  167  THR167     -0.3015
     58  CA        90.2550  107.0630   89.2400 C.3   167  THR167      0.1146
     59  C         90.5010  106.3380   90.5550 C.2   167  THR167      0.2225
     60  O         90.8280  106.9660   91.5690 O.2   167  THR167     -0.2868
     61  CB        88.7620  107.3310   89.0490 C.3   167  THR167      0.0780
     62  CG2       88.2290  108.2210   90.1640 C.3   167  THR167     -0.0368
     63  OG1       88.5460  107.9720   87.7860 O.3   167  THR167     -0.3898
     64  H         90.1830  106.0390   87.5470 H     167  THR167      0.1495
     65  HA        90.7120  107.9180   89.2790 H     167  THR167      0.0608
     66  HB        88.2780  106.4900   89.0710 H     167  THR167      0.0613
     67  HG1       88.5730  107.4050   87.1660 H     167  THR167      0.2099
     68 HG21       87.3260  108.5080   89.9560 H     167  THR167      0.0255
     69 HG22       88.7940  109.0040   90.2610 H     167  THR167      0.0255
     70 HG23       88.2190  107.7360   91.0040 H     167  THR167      0.0255
     71  N         94.1550  106.8880   91.5010 N.3   170  ILE170     -0.2450
     72  CA        94.3920  108.2500   91.9840 C.3   170  ILE170      0.0902
     73  C         93.8440  108.4130   93.3970 C.2   170  ILE170      0.2180
     74  O         94.5050  108.9700   94.2840 O.2   170  ILE170     -0.2872
     75  CB        93.7790  109.2870   91.0250 C.3   170  ILE170     -0.0201
     76  CG1       94.3090  109.1020   89.5980 C.3   170  ILE170     -0.0514
     77  CG2       94.0550  110.7000   91.5270 C.3   170  ILE170     -0.0606
     78  CD1       95.7120  109.6290   89.3800 C.3   170  ILE170     -0.0650
     79  H         93.6540  106.8370   90.8050 H     170  ILE170      0.1414
     80  HA        95.3490  108.4070   92.0170 H     170  ILE170      0.0560
     81  HB        92.8180  109.1520   91.0110 H     170  ILE170      0.0318
     82 HG12       94.3260  108.1610   89.3810 H     170  ILE170      0.0266
     83 HG13       93.7200  109.5710   88.9860 H     170  ILE170      0.0266
     84 HG21       93.8810  111.3280   90.8080 H     170  ILE170      0.0233
     85 HG22       93.4700  110.8870   92.2780 H     170  ILE170      0.0233
     86 HG23       94.9820  110.7640   91.8050 H     170  ILE170      0.0233
     87 HD11       96.0250  109.3270   88.5130 H     170  ILE170      0.0230
     88 HD12       95.6990  110.5970   89.4020 H     170  ILE170      0.0230
     89 HD13       96.2930  109.2860   90.0780 H     170  ILE170      0.0230
     90  N         81.6210  107.5670   88.6320 N.3   213  ILE213     -0.2450
     91  CA        82.0010  108.5300   87.6030 C.3   213  ILE213      0.0902
     92  C         81.5890  108.0400   86.2210 C.2   213  ILE213      0.2180
     93  O         81.3240  108.8460   85.3210 O.2   213  ILE213     -0.2872
     94  CB        83.5160  108.8020   87.6750 C.3   213  ILE213     -0.0201
     95  CG1       83.8960  109.9900   86.7900 C.3   213  ILE213     -0.0514
     96  CG2       84.2920  107.5720   87.2460 C.3   213  ILE213     -0.0606
     97  CD1       85.2940  110.5130   87.0540 C.3   213  ILE213     -0.0650
     98  H         82.2840  107.2050   89.0440 H     213  ILE213      0.1414
     99  HA        81.5400  109.3660   87.7710 H     213  ILE213      0.0560
    100  HB        83.7520  109.0120   88.5920 H     213  ILE213      0.0318
    101 HG12       83.8470  109.7230   85.8580 H     213  ILE213      0.0266
    102 HG13       83.2740  110.7150   86.9570 H     213  ILE213      0.0266
    103 HG21       83.7500  106.7860   87.4070 H     213  ILE213      0.0233
    104 HG22       85.1130  107.5180   87.7580 H     213  ILE213      0.0233
    105 HG23       84.4930  107.6410   86.3010 H     213  ILE213      0.0233
    106 HD11       85.5070  111.1950   86.4010 H     213  ILE213      0.0230
    107 HD12       85.3260  110.8890   87.9480 H     213  ILE213      0.0230
    108 HD13       85.9250  109.7800   86.9810 H     213  ILE213      0.0230
    109  N         86.2590  108.6400   74.6800 N.3   233  ILE233     -0.2450
    110  CA        85.3780  109.1180   75.7380 C.3   233  ILE233      0.0902
    111  C         84.5640  110.3090   75.2360 C.2   233  ILE233      0.2180
    112  O         84.9880  111.0540   74.3430 O.2   233  ILE233     -0.2872
    113  CB        86.1960  109.4870   76.9890 C.3   233  ILE233     -0.0201
    114  CG1       85.2910  109.9560   78.1350 C.3   233  ILE233     -0.0514
    115  CG2       87.2160  110.5750   76.6670 C.3   233  ILE233     -0.0606
    116  CD1       84.3510  108.8920   78.6620 C.3   233  ILE233     -0.0650
    117  H         87.0940  108.7740   74.8250 H     233  ILE233      0.1414
    118  HA        84.7600  108.4100   75.9750 H     233  ILE233      0.0560
    119  HB        86.6760  108.6970   77.2830 H     233  ILE233      0.0318
    120 HG12       85.8570  110.2280   78.8740 H     233  ILE233      0.0266
    121 HG13       84.7610  110.7130   77.8450 H     233  ILE233      0.0266
    122 HG21       87.7150  110.7820   77.4730 H     233  ILE233      0.0233
    123 HG22       87.8220  110.2570   75.9810 H     233  ILE233      0.0233
    124 HG23       86.7510  111.3680   76.3570 H     233  ILE233      0.0233
    125 HD11       83.8040  109.2770   79.3640 H     233  ILE233      0.0230
    126 HD12       84.8760  108.1600   79.0190 H     233  ILE233      0.0230
    127 HD13       83.7860  108.5770   77.9400 H     233  ILE233      0.0230
    128  N         79.8060  116.5970   81.2910 N.3   239  TYR239     -0.2437
    129  CA        80.3070  115.3370   81.8240 C.3   239  TYR239      0.1020
    130  C         81.8220  115.3790   81.9670 C.2   239  TYR239      0.2323
    131  O         82.3660  114.8980   82.9640 O.2   239  TYR239     -0.2740
    132  CB        79.8970  114.1680   80.9270 C.3   239  TYR239     -0.0025
    133  CG        80.6270  112.8830   81.2450 C.ar  239  TYR239     -0.0452
    134  CD1       80.2070  112.0600   82.2810 C.ar  239  TYR239     -0.0551
    135  CD2       81.7390  112.4940   80.5090 C.ar  239  TYR239     -0.0551
    136  CE1       80.8740  110.8870   82.5760 C.ar  239  TYR239     -0.0199
    137  CE2       82.4110  111.3220   80.7970 C.ar  239  TYR239     -0.0199
    138  CZ        81.9750  110.5220   81.8300 C.ar  239  TYR239      0.1169
    139  OH        82.6410  109.3540   82.1200 O.3   239  TYR239     -0.5068
    140  H         79.9720  116.7170   80.4570 H     239  TYR239      0.1414
    141  HA        79.9280  115.1850   82.7030 H     239  TYR239      0.0573
    142  HB2       78.9470  114.0060   81.0380 H     239  TYR239      0.0333
    143  HB3       80.0860  114.3990   80.0040 H     239  TYR239      0.0333
    144  HD1       79.4650  112.3040   82.7860 H     239  TYR239      0.0621
    145  HD2       82.0360  113.0320   79.8110 H     239  TYR239      0.0621
    146  HE1       80.5810  110.3450   83.2730 H     239  TYR239      0.0654
    147  HE2       83.1540  111.0750   80.2950 H     239  TYR239      0.0654
    148  HH        82.4280  109.0850   82.8870 H     239  TYR239      0.2921
    149  N         82.5110  115.9450   80.9740 N.am  240  THR240     -0.3015
    150  CA        83.9710  115.9550   81.0070 C.3   240  THR240      0.1146
    151  C         84.4940  116.7710   82.1820 C.2   240  THR240      0.2225
    152  O         85.4090  116.3330   82.8910 O.2   240  THR240     -0.2868
    153  CB        84.5270  116.5070   79.6940 C.3   240  THR240      0.0780
    154  CG2       84.2690  115.5360   78.5520 C.3   240  THR240     -0.0368
    155  OG1       83.9150  117.7690   79.4010 O.3   240  THR240     -0.3898
    156  H         82.1630  116.3210   80.2840 H     240  THR240      0.1495
    157  HA        84.2900  115.0450   81.1080 H     240  THR240      0.0608
    158  HB        85.4860  116.6280   79.7790 H     240  THR240      0.0613
    159  HG1       83.1460  117.6520   79.0870 H     240  THR240      0.2099
    160 HG21       83.3370  115.2650   78.5490 H     240  THR240      0.0255
    161 HG22       84.4770  115.9620   77.7060 H     240  THR240      0.0255
    162 HG23       84.8240  114.7480   78.6550 H     240  THR240      0.0255
    163  N         83.7930  114.8840   85.4710 N.3   243  SER243     -0.2418
    164  CA        84.6360  113.7050   85.6070 C.3   243  SER243      0.1210
    165  C         86.0770  114.0770   85.9210 C.2   243  SER243      0.2342
    166  O         86.6710  113.5060   86.8420 O.2   243  SER243     -0.2740
    167  CB        84.5710  112.8680   84.3290 C.3   243  SER243      0.0693
    168  OG        84.9050  113.6460   83.1930 O.3   243  SER243     -0.3929
    169  H         83.4450  114.9870   84.6910 H     243  SER243      0.1415
    170  HA        84.3010  113.1620   86.3380 H     243  SER243      0.0593
    171  HB2       85.1990  112.1330   84.4000 H     243  SER243      0.0578
    172  HB3       83.6700  112.5260   84.2220 H     243  SER243      0.0578
    173  HG        84.2460  114.1110   82.9600 H     243  SER243      0.2095
    174  N         86.6540  115.0300   85.1840 N.am  244  THR244     -0.3014
    175  CA        88.0380  115.4070   85.4460 C.3   244  THR244      0.1146
    176  C         88.1940  116.0410   86.8230 C.2   244  THR244      0.2225
    177  O         89.1650  115.7430   87.5300 O.2   244  THR244     -0.2868
    178  CB        88.5540  116.3450   84.3490 C.3   244  THR244      0.0780
    179  CG2       87.9200  117.7250   84.4490 C.3   244  THR244     -0.0368
    180  OG1       89.9790  116.4650   84.4480 O.3   244  THR244     -0.3898
    181  H         86.2750  115.4610   84.5430 H     244  THR244      0.1495
    182  HA        88.5850  114.6060   85.4280 H     244  THR244      0.0608
    183  HB        88.3270  115.9730   83.4830 H     244  THR244      0.0613
    184  HG1       90.1990  116.6220   85.2430 H     244  THR244      0.2099
    185 HG21       88.1680  118.2560   83.6750 H     244  THR244      0.0255
    186 HG22       86.9560  117.6410   84.4720 H     244  THR244      0.0255
    187 HG23       88.2220  118.1810   85.2490 H     244  THR244      0.0255
    188  N         88.0010  113.2720   89.3990 N.3   247  ALA247     -0.2443
    189  CA        89.0230  112.2350   89.3130 C.3   247  ALA247      0.0953
    190  C         90.4060  112.7640   89.6740 C.2   247  ALA247      0.2316
    191  O         91.1470  112.1080   90.4150 O.2   247  ALA247     -0.2740
    192  CB        89.0360  111.6340   87.9080 C.3   247  ALA247     -0.0399
    193  H         87.8100  113.6540   88.6520 H     247  ALA247      0.1414
    194  HA        88.8040  111.5260   89.9370 H     247  ALA247      0.0567
    195  HB1       89.7170  110.9450   87.8660 H     247  ALA247      0.0250
    196  HB2       89.2340  112.3350   87.2670 H     247  ALA247      0.0250
    197  HB3       88.1640  111.2510   87.7210 H     247  ALA247      0.0250
    198  N         90.7820  113.9360   89.1590 N.am  248  PHE248     -0.3036
    199  CA        92.1600  114.4050   89.2770 C.3   248  PHE248      0.0930
    200  C         92.2860  115.6720   90.1120 C.2   248  PHE248      0.2203
    201  O         93.0610  115.6910   91.0730 O.2   248  PHE248     -0.2869
    202  CB        92.7510  114.6290   87.8790 C.3   248  PHE248     -0.0018
    203  CG        94.1570  115.1560   87.8950 C.ar  248  PHE248     -0.0452
    204  CD1       95.2270  114.3020   88.0960 C.ar  248  PHE248     -0.0585
    205  CD2       94.4080  116.5050   87.7100 C.ar  248  PHE248     -0.0585
    206  CE1       96.5220  114.7820   88.1120 C.ar  248  PHE248     -0.0615
    207  CE2       95.7020  116.9910   87.7250 C.ar  248  PHE248     -0.0615
    208  CZ        96.7590  116.1280   87.9270 C.ar  248  PHE248     -0.0617
    209  H         90.2600  114.4750   88.7380 H     248  PHE248      0.1495
    210  HA        92.6910  113.7190   89.7090 H     248  PHE248      0.0585
    211  HB2       92.7570  113.7830   87.4040 H     248  PHE248      0.0335
    212  HB3       92.1990  115.2690   87.4040 H     248  PHE248      0.0335
    213  HD1       95.0720  113.3930   88.2220 H     248  PHE248      0.0620
    214  HD2       93.6990  117.0900   87.5740 H     248  PHE248      0.0620
    215  HE1       97.2330  114.1980   88.2480 H     248  PHE248      0.0618
    216  HE2       95.8590  117.8990   87.6000 H     248  PHE248      0.0618
    217  HZ        97.6310  116.4530   87.9370 H     248  PHE248      0.0618
    218  N         98.1180  114.6980   80.8670 N.3   343  PHE343     -0.2437
    219  CA        96.9920  114.0190   80.2370 C.3   343  PHE343      0.1020
    220  C         95.6740  114.6680   80.6390 C.2   343  PHE343      0.2322
    221  O         94.8240  114.9600   79.7900 O.2   343  PHE343     -0.2740
    222  CB        96.9960  112.5360   80.6120 C.3   343  PHE343     -0.0025
    223  CG        95.7490  111.8080   80.1990 C.ar  343  PHE343     -0.0454
    224  CD1       95.5730  111.4000   78.8870 C.ar  343  PHE343     -0.0585
    225  CD2       94.7490  111.5420   81.1180 C.ar  343  PHE343     -0.0585
    226  CE1       94.4260  110.7330   78.5030 C.ar  343  PHE343     -0.0615
    227  CE2       93.6000  110.8780   80.7380 C.ar  343  PHE343     -0.0615
    228  CZ        93.4380  110.4720   79.4300 C.ar  343  PHE343     -0.0617
    229  H         98.5800  114.2060   81.4000 H     343  PHE343      0.1414
    230  HA        97.0790  114.0860   79.2730 H     343  PHE343      0.0573
    231  HB2       97.7490  112.1050   80.1790 H     343  PHE343      0.0333
    232  HB3       97.0800  112.4570   81.5750 H     343  PHE343      0.0333
    233  HD1       96.2370  111.5730   78.2590 H     343  PHE343      0.0620
    234  HD2       94.8530  111.8130   82.0010 H     343  PHE343      0.0620
    235  HE1       94.3190  110.4620   77.6200 H     343  PHE343      0.0618
    236  HE2       92.9350  110.7030   81.3650 H     343  PHE343      0.0618
    237  HZ        92.6650  110.0240   79.1730 H     343  PHE343      0.0618
    238  N         95.4870  114.9020   81.9390 N.am  344  PHE344     -0.3036
    239  CA        94.2600  115.5330   82.4100 C.3   344  PHE344      0.0930
    240  C         94.1440  116.9770   81.9440 C.2   344  PHE344      0.2203
    241  O         93.0330  117.4310   81.6500 O.2   344  PHE344     -0.2869
    242  CB        94.1870  115.4630   83.9350 C.3   344  PHE344     -0.0018
    243  CG        93.5820  114.1880   84.4510 C.ar  344  PHE344     -0.0452
    244  CD1       92.2130  113.9850   84.3980 C.ar  344  PHE344     -0.0585
    245  CD2       94.3820  113.1910   84.9820 C.ar  344  PHE344     -0.0585
    246  CE1       91.6530  112.8130   84.8690 C.ar  344  PHE344     -0.0615
    247  CE2       93.8280  112.0160   85.4540 C.ar  344  PHE344     -0.0615
    248  CZ        92.4620  111.8270   85.3970 C.ar  344  PHE344     -0.0617
    249  H         96.0500  114.7070   82.5590 H     344  PHE344      0.1495
    250  HA        93.5020  115.0440   82.0530 H     344  PHE344      0.0585
    251  HB2       95.0840  115.5330   84.2960 H     344  PHE344      0.0335
    252  HB3       93.6440  116.2000   84.2560 H     344  PHE344      0.0335
    253  HD1       91.6640  114.6460   84.0420 H     344  PHE344      0.0620
    254  HD2       95.3030  113.3130   85.0230 H     344  PHE344      0.0620
    255  HE1       90.7320  112.6880   84.8290 H     344  PHE344      0.0618
    256  HE2       94.3750  111.3540   85.8100 H     344  PHE344      0.0618
    257  HZ        92.0870  111.0380   85.7150 H     344  PHE344      0.0618
    258  N         92.9520  116.6970   78.4340 N.3   347  SER347     -0.2430
    259  CA        91.5720  116.2290   78.4260 C.3   347  SER347      0.1106
    260  C         90.5940  117.3340   78.7980 C.2   347  SER347      0.2200
    261  O         89.5330  117.4450   78.1740 O.2   347  SER347     -0.2871
    262  CB        91.4140  115.0480   79.3860 C.3   347  SER347      0.0681
    263  OG        90.1370  114.4490   79.2520 O.3   347  SER347     -0.3930
    264  H         93.4610  116.3010   79.0030 H     347  SER347      0.1414
    265  HA        91.3490  115.9210   77.5340 H     347  SER347      0.0580
    266  HB2       92.0940  114.3870   79.1850 H     347  SER347      0.0577
    267  HB3       91.5190  115.3660   80.2960 H     347  SER347      0.0577
    268  HG        89.5370  115.0110   79.4230 H     347  SER347      0.2095
@<TRIPOS>BOND
     1   112   111    2
     2   109   117    1
     3   109   110    1
     4   111   110    1
     5   110   118    1
     6   110   113    1
     7   123   115    1
     8   124   115    1
     9   115   113    1
    10   115   122    1
    11   113   119    1
    12   113   114    1
    13   265   259    1
    14   235   226    1
    15   161   154    1
    16   121   114    1
    17   127   116    1
    18   114   116    1
    19   114   120    1
    20   261   260    2
    21   233   224    1
    22   259   258    1
    23   259   260    1
    24   259   262    1
    25   258   264    1
    26   226   224   ar
    27   226   228   ar
    28   160   154    1
    29   154   162    1
    30   154   153    1
    31   116   126    1
    32   116   125    1
    33   224   223   ar
    34   159   155    1
    35   237   228    1
    36   266   262    1
    37   263   262    1
    38   263   268    1
    39   230   219    1
    40   262   267    1
    41   155   153    1
    42   228   227   ar
    43   153   158    1
    44   153   150    1
    45   221   220    2
    46   145   135    1
    47     8     6   ar
    48   143   132    1
    49    11     5    1
    50   231   222    1
    51   223   222    1
    52   223   225   ar
    53   219   222    1
    54   219   220    1
    55   219   218    1
    56   156   149    1
    57   147   137    1
    58    12     5    1
    59   140   128    1
    60   135   137   ar
    61   135   133   ar
    62   222   232    1
    63   220   238   am
    64   227   225   ar
    65   227   236    1
    66     5     6    1
    67     5     2    1
    68     6     7   ar
    69   137   138   ar
    70   218   229    1
    71   132   142    1
    72   132   133    1
    73   132   129    1
    74   149   150    1
    75   149   130   am
    76   150   157    1
    77   150   151    1
    78   225   234    1
    79     9     1    1
    80   133   134   ar
    81   128   129    1
    82    26    19    1
    83    27    19    1
    84   241   240    2
    85   129   130    1
    86   129   141    1
    87   138   139    1
    88   138   136   ar
    89   238   239    1
    90   238   249    1
    91   240   239    1
    92    19    28    1
    93    19    17    1
    94   130   131    2
    95     1     2    1
    96   250   239    1
    97   139   148    1
    98     2    10    1
    99     2     3    1
   100   151   152    2
   101   134   136   ar
   102   134   144    1
   103    20    13    1
   104   239   242    1
   105   136   146    1
   106    13     3   am
   107    13    14    1
   108   173   168    1
   109     3     4    2
   110   168   167    1
   111    22    17    1
   112    17    14    1
   113    17    18    1
   114   183   178    1
   115   185   179    1
   116    56    51    1
   117    21    14    1
   118    14    15    1
   119   242   252    1
   120   242   251    1
   121   242   243    1
   122    23    18    1
   123   253   244    1
   124    51    50    1
   125   172   167    1
   126   167   171    1
   127   167   164    1
   128    18    25    1
   129    18    24    1
   130   178   180    1
   131   178   179    1
   132   178   175    1
   133   244   243   ar
   134   244   246   ar
   135   180   184    1
   136   179   186    1
   137   179   187    1
   138   243   245   ar
   139   181   174    1
   140   169   163    1
   141   255   246    1
   142   246   248   ar
   143    37    29    1
   144   245   254    1
   145   245   247   ar
   146   174   175    1
   147   174   165   am
   148    15    29   am
   149    15    16    2
   150    54    50    1
   151    93    92    2
   152   248   247   ar
   153   248   257    1
   154   182   175    1
   155   175   176    1
   156   247   256    1
   157   163   164    1
   158    29    30    1
   159    50    55    1
   160    50    47    1
   161   164   165    1
   162   164   170    1
   163   101    95    1
   164    52    46    1
   165   165   166    2
   166    92    91    1
   167   105    96    1
   168    39    33    1
   169   106    97    1
   170    40    33    1
   171    46    47    1
   172    95   102    1
   173    95    97    1
   174    95    94    1
   175   176   177    2
   176    30    33    1
   177    30    38    1
   178    30    31    1
   179    33    34    1
   180    47    53    1
   181    47    48    1
   182   108    97    1
   183    97   107    1
   184    67    63    1
   185    96   103    1
   186    96    94    1
   187    96   104    1
   188   196   192    1
   189   211   202    1
   190   212   202    1
   191    31    32    2
   192    64    57    1
   193   214   205    1
   194   216   207    1
   195    91    94    1
   196    91    99    1
   197    91    90    1
   198    94   100    1
   199   205   207   ar
   200   205   203   ar
   201   197   192    1
   202   207   208   ar
   203    63    61    1
   204    45    36    1
   205   195   192    1
   206   202   203    1
   207   202   199    1
   208   203   204   ar
   209   192   189    1
   210   208   217    1
   211   208   206   ar
   212    48    57   am
   213    48    49    2
   214   204   206   ar
   215   204   213    1
   216   206   215    1
   217    57    58    1
   218    42    34    1
   219    34    41    1
   220    34    35    1
   221    87    78    1
   222    90    98    1
   223   193   188    1
   224   209   198    1
   225    36    35    1
   226    36    44    1
   227    36    43    1
   228    83    76    1
   229    61    66    1
   230    61    58    1
   231    61    62    1
   232   198   199    1
   233   198   190   am
   234    58    65    1
   235    58    59    1
   236   199   210    1
   237   199   200    1
   238   189   188    1
   239   189   190    1
   240   189   194    1
   241    78    88    1
   242    78    76    1
   243    78    89    1
   244    82    76    1
   245    76    75    1
   246   190   191    2
   247    68    62    1
   248   200   201    2
   249    62    69    1
   250    62    70    1
   251    59    60    2
   252    79    71    1
   253    84    77    1
   254    81    75    1
   255    75    77    1
   256    75    72    1
   257    71    72    1
   258    77    86    1
   259    77    85    1
   260    72    80    1
   261    72    73    1
   262    73    74    2
