
     RDKit          3D

 25 26  0  0  0  0  0  0  0  0999 V2000
   -3.0626    0.9151    0.3915 C   0  0  0  0  0  0  0  0  0  0  0  0
   -2.7459   -0.4405    0.5940 C   0  0  0  0  0  0  0  0  0  0  0  0
   -1.4867   -0.8828    0.1929 C   0  0  0  0  0  0  0  0  0  0  0  0
   -0.5753   -0.0352   -0.3820 C   0  0  0  0  0  0  0  0  0  0  0  0
   -0.8568    1.3148   -0.5920 C   0  0  0  0  0  0  0  0  0  0  0  0
   -2.1212    1.7936   -0.1994 C   0  0  0  0  0  0  0  0  0  0  0  0
   -2.4350    3.1361   -0.3967 O   0  0  0  0  0  0  0  0  0  0  0  0
    0.5548   -0.7837   -0.6469 C   0  0  0  0  0  0  0  0  0  0  0  0
    0.2696   -2.0691   -0.1961 C   0  0  0  0  0  0  0  0  0  0  0  0
   -0.9835   -2.1241    0.3102 N   0  0  0  0  0  0  0  0  0  0  0  0
    1.8590   -0.3031   -1.2132 C   0  0  0  0  0  0  0  0  0  0  0  0
    2.7201    0.3679   -0.1394 C   0  0  0  0  0  0  0  0  0  0  0  0
    3.0877   -0.5871    0.9027 N   0  0  0  0  0  0  0  0  0  0  0  0
   -4.0339    1.2848    0.6939 H   0  0  0  0  0  0  0  0  0  0  0  0
   -3.4577   -1.1167    1.0495 H   0  0  0  0  0  0  0  0  0  0  0  0
   -0.1272    1.9758   -1.0418 H   0  0  0  0  0  0  0  0  0  0  0  0
   -3.3353    3.5141   -0.1257 H   0  0  0  0  0  0  0  0  0  0  0  0
    0.9461   -2.9133   -0.2271 H   0  0  0  0  0  0  0  0  0  0  0  0
   -1.4556   -2.9603    0.7206 H   0  0  0  0  0  0  0  0  0  0  0  0
    1.6572    0.4257   -2.0271 H   0  0  0  0  0  0  0  0  0  0  0  0
    2.4126   -1.1575   -1.6595 H   0  0  0  0  0  0  0  0  0  0  0  0
    2.1588    1.2146    0.3138 H   0  0  0  0  0  0  0  0  0  0  0  0
    3.6394    0.7796   -0.6123 H   0  0  0  0  0  0  0  0  0  0  0  0
    3.7525   -1.2816    0.4904 H   0  0  0  0  0  0  0  0  0  0  0  0
    3.6191   -0.0667    1.6377 H   0  0  0  0  0  0  0  0  0  0  0  0
  1  2  2  0
  2  3  1  0
  3  4  2  0
  4  5  1  0
  5  6  2  0
  6  7  1  0
  4  8  1  0
  8  9  2  0
  9 10  1  0
  8 11  1  0
 11 12  1  0
 12 13  1  0
  6  1  1  0
 10  3  1  0
  1 14  1  0
  2 15  1  0
  5 16  1  0
  7 17  1  0
  9 18  1  0
 10 19  1  0
 11 20  1  0
 11 21  1  0
 12 22  1  0
 12 23  1  0
 13 24  1  0
 13 25  1  0
M  END
$$$$
